*SPEF "ieee 1481-1999"
*DESIGN "bfg_mux_test"
*DATE "11:11:11 Fri 11 11, 1111"
*VENDOR "OpenRCX"
*PROGRAM "Parallel Extraction"
*VERSION "1.0"
*DESIGN_FLOW "NAME_SCOPE LOCAL" "PIN_CAP NONE"
*DIVIDER /
*DELIMITER :
*BUS_DELIMITER []
*T_UNIT 1 NS
*C_UNIT 1 PF
*R_UNIT 1 OHM
*L_UNIT 1 HENRY

*NAME_MAP
*1 bfg_out
*2 gf_out
*3 i0
*4 i1
*5 i2
*6 i3
*7 s0
*8 s1
*11 _0_
*12 _1_
*13 net1
*14 net2
*15 net3
*16 net4
*17 net5
*18 net6
*19 net7
*20 net8
*21 ANTENNA__2__I
*22 ANTENNA__3__I
*23 ANTENNA_bfg_mux_i0_l
*24 ANTENNA_bfg_mux_i0_r
*25 ANTENNA_bfg_mux_i1_l
*26 ANTENNA_bfg_mux_i1_r
*27 ANTENNA_bfg_mux_i2_l
*28 ANTENNA_bfg_mux_i2_r
*29 ANTENNA_bfg_mux_i3_l
*30 ANTENNA_bfg_mux_i3_r
*31 ANTENNA_bfg_mux_s0
*32 ANTENNA_bfg_mux_s1
*33 ANTENNA_bfg_mux_s1b
*34 ANTENNA_bfg_mux_z
*35 ANTENNA_gf_mux_I0
*36 ANTENNA_gf_mux_I1
*37 ANTENNA_gf_mux_I2
*38 ANTENNA_gf_mux_I3
*39 ANTENNA_gf_mux_S0
*40 ANTENNA_gf_mux_S1
*41 ANTENNA_input1_I
*42 ANTENNA_input2_I
*43 ANTENNA_input3_I
*44 ANTENNA_input4_I
*45 ANTENNA_input5_I
*46 ANTENNA_input6_I
*47 ANTENNA_output7_I
*48 ANTENNA_output8_I
*49 FILLER_0_104
*50 FILLER_0_107
*51 FILLER_0_110
*52 FILLER_0_126
*53 FILLER_0_134
*54 FILLER_0_138
*55 FILLER_0_142
*56 FILLER_0_174
*57 FILLER_0_177
*58 FILLER_0_19
*59 FILLER_0_193
*60 FILLER_0_2
*61 FILLER_0_201
*62 FILLER_0_205
*63 FILLER_0_209
*64 FILLER_0_212
*65 FILLER_0_229
*66 FILLER_0_237
*67 FILLER_0_37
*68 FILLER_0_69
*69 FILLER_0_72
*70 FILLER_0_88
*71 FILLER_10_155
*72 FILLER_10_187
*73 FILLER_10_190
*74 FILLER_10_2
*75 FILLER_10_222
*76 FILLER_10_238
*77 FILLER_10_240
*78 FILLER_10_34
*79 FILLER_10_37
*80 FILLER_10_69
*81 FILLER_10_77
*82 FILLER_10_81
*83 FILLER_10_83
*84 FILLER_11_155
*85 FILLER_11_2
*86 FILLER_11_219
*87 FILLER_11_223
*88 FILLER_11_226
*89 FILLER_11_234
*90 FILLER_11_238
*91 FILLER_11_240
*92 FILLER_11_5
*93 FILLER_11_69
*94 FILLER_11_73
*95 FILLER_11_81
*96 FILLER_11_83
*97 FILLER_12_155
*98 FILLER_12_187
*99 FILLER_12_19
*100 FILLER_12_190
*101 FILLER_12_2
*102 FILLER_12_222
*103 FILLER_12_238
*104 FILLER_12_240
*105 FILLER_12_37
*106 FILLER_12_69
*107 FILLER_12_77
*108 FILLER_12_81
*109 FILLER_12_83
*110 FILLER_13_104
*111 FILLER_13_107
*112 FILLER_13_117
*113 FILLER_13_121
*114 FILLER_13_124
*115 FILLER_13_142
*116 FILLER_13_174
*117 FILLER_13_177
*118 FILLER_13_2
*119 FILLER_13_209
*120 FILLER_13_212
*121 FILLER_13_228
*122 FILLER_13_236
*123 FILLER_13_240
*124 FILLER_13_34
*125 FILLER_13_37
*126 FILLER_13_69
*127 FILLER_13_72
*128 FILLER_14_101
*129 FILLER_14_105
*130 FILLER_14_108
*131 FILLER_14_172
*132 FILLER_14_176
*133 FILLER_14_179
*134 FILLER_14_2
*135 FILLER_14_211
*136 FILLER_14_227
*137 FILLER_14_235
*138 FILLER_14_239
*139 FILLER_14_34
*140 FILLER_14_37
*141 FILLER_15_137
*142 FILLER_15_141
*143 FILLER_15_144
*144 FILLER_15_2
*145 FILLER_15_208
*146 FILLER_15_212
*147 FILLER_15_215
*148 FILLER_15_231
*149 FILLER_15_239
*150 FILLER_15_66
*151 FILLER_15_70
*152 FILLER_15_73
*153 FILLER_16_104
*154 FILLER_16_107
*155 FILLER_16_123
*156 FILLER_16_131
*157 FILLER_16_135
*158 FILLER_16_139
*159 FILLER_16_142
*160 FILLER_16_144
*161 FILLER_16_170
*162 FILLER_16_174
*163 FILLER_16_177
*164 FILLER_16_18
*165 FILLER_16_193
*166 FILLER_16_2
*167 FILLER_16_201
*168 FILLER_16_205
*169 FILLER_16_209
*170 FILLER_16_212
*171 FILLER_16_227
*172 FILLER_16_235
*173 FILLER_16_239
*174 FILLER_16_26
*175 FILLER_16_30
*176 FILLER_16_34
*177 FILLER_16_37
*178 FILLER_16_54
*179 FILLER_16_72
*180 FILLER_1_137
*181 FILLER_1_141
*182 FILLER_1_144
*183 FILLER_1_2
*184 FILLER_1_208
*185 FILLER_1_212
*186 FILLER_1_215
*187 FILLER_1_219
*188 FILLER_1_221
*189 FILLER_1_226
*190 FILLER_1_230
*191 FILLER_1_238
*192 FILLER_1_240
*193 FILLER_1_5
*194 FILLER_1_69
*195 FILLER_1_73
*196 FILLER_2_104
*197 FILLER_2_107
*198 FILLER_2_115
*199 FILLER_2_119
*200 FILLER_2_135
*201 FILLER_2_139
*202 FILLER_2_142
*203 FILLER_2_174
*204 FILLER_2_177
*205 FILLER_2_2
*206 FILLER_2_209
*207 FILLER_2_212
*208 FILLER_2_228
*209 FILLER_2_236
*210 FILLER_2_240
*211 FILLER_2_34
*212 FILLER_2_37
*213 FILLER_2_69
*214 FILLER_2_72
*215 FILLER_3_155
*216 FILLER_3_2
*217 FILLER_3_219
*218 FILLER_3_223
*219 FILLER_3_226
*220 FILLER_3_234
*221 FILLER_3_238
*222 FILLER_3_240
*223 FILLER_3_66
*224 FILLER_3_70
*225 FILLER_3_73
*226 FILLER_3_81
*227 FILLER_3_83
*228 FILLER_4_155
*229 FILLER_4_187
*230 FILLER_4_190
*231 FILLER_4_2
*232 FILLER_4_222
*233 FILLER_4_238
*234 FILLER_4_240
*235 FILLER_4_34
*236 FILLER_4_37
*237 FILLER_4_69
*238 FILLER_4_77
*239 FILLER_4_81
*240 FILLER_4_83
*241 FILLER_5_155
*242 FILLER_5_158
*243 FILLER_5_2
*244 FILLER_5_222
*245 FILLER_5_226
*246 FILLER_5_234
*247 FILLER_5_238
*248 FILLER_5_240
*249 FILLER_5_66
*250 FILLER_5_70
*251 FILLER_5_73
*252 FILLER_5_81
*253 FILLER_5_83
*254 FILLER_6_155
*255 FILLER_6_158
*256 FILLER_6_162
*257 FILLER_6_166
*258 FILLER_6_182
*259 FILLER_6_186
*260 FILLER_6_190
*261 FILLER_6_2
*262 FILLER_6_206
*263 FILLER_6_208
*264 FILLER_6_225
*265 FILLER_6_229
*266 FILLER_6_237
*267 FILLER_6_34
*268 FILLER_6_37
*269 FILLER_6_69
*270 FILLER_6_77
*271 FILLER_6_81
*272 FILLER_6_83
*273 FILLER_7_155
*274 FILLER_7_188
*275 FILLER_7_192
*276 FILLER_7_196
*277 FILLER_7_2
*278 FILLER_7_200
*279 FILLER_7_216
*280 FILLER_7_226
*281 FILLER_7_234
*282 FILLER_7_238
*283 FILLER_7_240
*284 FILLER_7_66
*285 FILLER_7_70
*286 FILLER_7_73
*287 FILLER_7_79
*288 FILLER_7_83
*289 FILLER_8_155
*290 FILLER_8_158
*291 FILLER_8_162
*292 FILLER_8_166
*293 FILLER_8_182
*294 FILLER_8_186
*295 FILLER_8_190
*296 FILLER_8_2
*297 FILLER_8_222
*298 FILLER_8_238
*299 FILLER_8_240
*300 FILLER_8_34
*301 FILLER_8_37
*302 FILLER_8_42
*303 FILLER_8_46
*304 FILLER_8_62
*305 FILLER_8_70
*306 FILLER_8_74
*307 FILLER_8_76
*308 FILLER_8_79
*309 FILLER_8_83
*310 FILLER_9_155
*311 FILLER_9_158
*312 FILLER_9_2
*313 FILLER_9_222
*314 FILLER_9_226
*315 FILLER_9_234
*316 FILLER_9_238
*317 FILLER_9_240
*318 FILLER_9_66
*319 FILLER_9_70
*320 FILLER_9_73
*321 FILLER_9_81
*322 FILLER_9_83
*323 PHY_0
*324 PHY_1
*325 PHY_10
*326 PHY_11
*327 PHY_12
*328 PHY_13
*329 PHY_14
*330 PHY_15
*331 PHY_16
*332 PHY_17
*333 PHY_18
*334 PHY_19
*335 PHY_2
*336 PHY_20
*337 PHY_21
*338 PHY_22
*339 PHY_23
*340 PHY_24
*341 PHY_25
*342 PHY_26
*343 PHY_27
*344 PHY_28
*345 PHY_29
*346 PHY_3
*347 PHY_30
*348 PHY_31
*349 PHY_32
*350 PHY_33
*351 PHY_34
*352 PHY_35
*353 PHY_36
*354 PHY_37
*355 PHY_38
*356 PHY_39
*357 PHY_4
*358 PHY_40
*359 PHY_41
*360 PHY_42
*361 PHY_43
*362 PHY_44
*363 PHY_45
*364 PHY_46
*365 PHY_47
*366 PHY_48
*367 PHY_49
*368 PHY_5
*369 PHY_50
*370 PHY_51
*371 PHY_52
*372 PHY_53
*373 PHY_6
*374 PHY_7
*375 PHY_8
*376 PHY_9
*377 TAP_100
*378 TAP_101
*379 TAP_102
*380 TAP_103
*381 TAP_104
*382 TAP_105
*383 TAP_106
*384 TAP_54
*385 TAP_55
*386 TAP_56
*387 TAP_57
*388 TAP_58
*389 TAP_59
*390 TAP_60
*391 TAP_61
*392 TAP_62
*393 TAP_63
*394 TAP_64
*395 TAP_65
*396 TAP_66
*397 TAP_67
*398 TAP_68
*399 TAP_69
*400 TAP_70
*401 TAP_71
*402 TAP_72
*403 TAP_73
*404 TAP_74
*405 TAP_75
*406 TAP_76
*407 TAP_77
*408 TAP_78
*409 TAP_79
*410 TAP_80
*411 TAP_81
*412 TAP_82
*413 TAP_83
*414 TAP_84
*415 TAP_85
*416 TAP_86
*417 TAP_87
*418 TAP_88
*419 TAP_89
*420 TAP_90
*421 TAP_91
*422 TAP_92
*423 TAP_93
*424 TAP_94
*425 TAP_95
*426 TAP_96
*427 TAP_97
*428 TAP_98
*429 TAP_99
*430 _2_
*431 _3_
*432 bfg_mux
*433 gf_mux
*434 input1
*435 input2
*436 input3
*437 input4
*438 input5
*439 input6
*440 output7
*441 output8

*PORTS
bfg_out O
gf_out O
i0 I
i1 I
i2 I
i3 I
s0 I
s1 I

*D_NET *1 0.00271299
*CONN
*P bfg_out O
*I *440:Z O *D gf180mcu_fd_sc_mcu7t5v0__clkbuf_3
*CAP
1 bfg_out 0.00135649
2 *440:Z 0.00135649
*RES
1 *440:Z bfg_out 23.805 
*END

*D_NET *2 0.00127055
*CONN
*P gf_out O
*I *441:Z O *D gf180mcu_fd_sc_mcu7t5v0__clkbuf_3
*CAP
1 gf_out 0.00063129
2 *441:Z 0.00063129
3 gf_out *441:I 7.96988e-06
*RES
1 *441:Z gf_out 9.225 
*END

*D_NET *3 0.00179578
*CONN
*P i0 I
*I *434:I I *D gf180mcu_fd_sc_mcu7t5v0__dlyb_1
*I *41:I I *D gf180mcu_fd_sc_mcu7t5v0__antenna
*CAP
1 i0 0.000703613
2 *434:I 0.000194276
3 *41:I 0
4 *3:8 0.000897889
*RES
1 i0 *3:8 9.315 
2 *3:8 *41:I 4.5 
3 *3:8 *434:I 14.94 
*END

*D_NET *4 0.000925556
*CONN
*P i1 I
*I *435:I I *D gf180mcu_fd_sc_mcu7t5v0__dlyb_1
*I *42:I I *D gf180mcu_fd_sc_mcu7t5v0__antenna
*CAP
1 i1 0.000212288
2 *435:I 0.00025049
3 *42:I 0
4 *4:7 0.000462778
*RES
1 i1 *4:7 6.165 
2 *4:7 *42:I 4.5 
3 *4:7 *435:I 6.12 
*END

*D_NET *5 0.00253191
*CONN
*P i2 I
*I *43:I I *D gf180mcu_fd_sc_mcu7t5v0__antenna
*I *436:I I *D gf180mcu_fd_sc_mcu7t5v0__dlyb_1
*CAP
1 i2 0.00102743
2 *43:I 0.000238522
3 *436:I 0
4 *5:11 0.00126596
*RES
1 i2 *5:11 16.605 
2 *5:11 *436:I 4.5 
3 *5:11 *43:I 6.12 
*END

*D_NET *6 0.00200928
*CONN
*P i3 I
*I *44:I I *D gf180mcu_fd_sc_mcu7t5v0__antenna
*I *437:I I *D gf180mcu_fd_sc_mcu7t5v0__dlyb_1
*CAP
1 i3 0.000739113
2 *44:I 0
3 *437:I 0.000265526
4 *6:9 0.00100464
*RES
1 i3 *6:9 5.625 
2 *6:9 *437:I 15.48 
3 *6:9 *44:I 4.5 
*END

*D_NET *7 0.00191487
*CONN
*P s0 I
*I *438:I I *D gf180mcu_fd_sc_mcu7t5v0__dlyc_1
*I *45:I I *D gf180mcu_fd_sc_mcu7t5v0__antenna
*CAP
1 s0 0.000680916
2 *438:I 0.000132887
3 *45:I 0.000143634
4 *7:5 0.000957437
*RES
1 s0 *7:5 5.085 
2 *7:5 *45:I 5.67 
3 *7:5 *438:I 5.58 
*END

*D_NET *8 0.00173136
*CONN
*P s1 I
*I *439:I I *D gf180mcu_fd_sc_mcu7t5v0__dlyb_1
*I *46:I I *D gf180mcu_fd_sc_mcu7t5v0__antenna
*CAP
1 s1 0.000600972
2 *439:I 0.000200085
3 *46:I 5.74538e-05
4 *8:5 0.000858511
5 *439:I *12:9 1.43407e-05
*RES
1 s1 *8:5 4.365 
2 *8:5 *46:I 4.95 
3 *8:5 *439:I 14.49 
*END

*D_NET *11 0.00677574
*CONN
*I *432:s0b I *D gf180mcu_mux
*I *430:ZN O *D gf180mcu_fd_sc_mcu7t5v0__clkinv_1
*CAP
1 *432:s0b 0.00054423
2 *430:ZN 0.00054423
3 *432:s0b *430:I 0.000154209
4 *432:s0b *432:i1_l 0.00146689
5 *432:s0b *14:10 0.00266939
6 *432:s0b *17:16 0.0013968
*RES
1 *430:ZN *432:s0b 31.3102 
*END

*D_NET *12 0.0111361
*CONN
*I *33:I I *D gf180mcu_fd_sc_mcu7t5v0__antenna
*I *432:s1b I *D gf180mcu_mux
*I *431:ZN O *D gf180mcu_fd_sc_mcu7t5v0__clkinv_1
*CAP
1 *33:I 0.000485607
2 *432:s1b 6.01887e-05
3 *431:ZN 0.00342714
4 *12:9 0.00397293
5 *33:I *432:z 0.00024586
6 *432:s1b *432:z 8.60916e-06
7 *12:9 *32:I 0.00151005
8 *12:9 *432:s0 0
9 *12:9 *432:s1 0.000106561
10 *12:9 *16:18 0
11 *12:9 *18:13 0.000527325
12 *12:9 *20:8 0.000777544
13 *439:I *12:9 1.43407e-05
*RES
1 *431:ZN *12:9 43.92 
2 *12:9 *432:s1b 5.0263 
3 *12:9 *33:I 8.91 
*END

*D_NET *13 0.0102598
*CONN
*I *35:I I *D gf180mcu_fd_sc_mcu7t5v0__antenna
*I *433:I0 I *D gf180mcu_fd_sc_mcu7t5v0__mux4_1
*I *24:I I *D gf180mcu_fd_sc_mcu7t5v0__antenna
*I *432:i0_r I *D gf180mcu_mux
*I *23:I I *D gf180mcu_fd_sc_mcu7t5v0__antenna
*I *432:i0_l I *D gf180mcu_mux
*I *434:Z O *D gf180mcu_fd_sc_mcu7t5v0__dlyb_1
*CAP
1 *35:I 0.000100098
2 *433:I0 0.000153433
3 *24:I 0
4 *432:i0_r 2.18376e-05
5 *23:I 0.00038898
6 *432:i0_l 0.000680333
7 *434:Z 0.000769359
8 *13:18 0.000703697
9 *13:14 0.000801523
10 *13:10 0.000670498
11 *13:8 0.000975504
12 *23:I *432:i1_l 0.000349006
13 *23:I *432:i2_l 0
14 *23:I *16:18 0.000200015
15 *23:I *17:16 0.00072199
16 *432:i0_r *432:s0 8.33025e-07
17 *432:i0_l *15:32 0.000281049
18 *432:i0_l *15:46 5.90755e-05
19 *432:i0_l *16:18 0.000247435
20 *432:i0_l *17:14 0.000130477
21 *432:i0_l *17:16 0.000394145
22 *433:I0 *433:I1 0
23 *13:8 *39:I 9.16425e-05
24 *13:8 *18:16 0
25 *13:10 *39:I 0.000130477
26 *13:14 *39:I 0.000212715
27 *13:14 *432:s1 0
28 *13:14 *433:I1 0.000791158
29 *13:14 *14:54 9.22618e-05
30 *13:14 *17:10 0
31 *13:14 *17:40 0.000312634
32 *13:18 *15:46 0.000408299
33 *13:18 *17:14 0.000548579
34 *13:18 *17:40 2.27084e-05
*RES
1 *434:Z *13:8 14.76 
2 *13:8 *13:10 1.17 
3 *13:10 *13:14 9.45 
4 *13:14 *13:18 9.9 
5 *13:18 *432:i0_l 13.6864 
6 *432:i0_l *23:I 23.3198 
7 *13:18 *432:i0_r 9.10286 
8 *13:14 *24:I 4.5 
9 *13:10 *433:I0 9.99 
10 *13:8 *35:I 9.63 
*END

*D_NET *14 0.0169784
*CONN
*I *36:I I *D gf180mcu_fd_sc_mcu7t5v0__antenna
*I *433:I1 I *D gf180mcu_fd_sc_mcu7t5v0__mux4_1
*I *26:I I *D gf180mcu_fd_sc_mcu7t5v0__antenna
*I *432:i1_r I *D gf180mcu_mux
*I *432:i1_l I *D gf180mcu_mux
*I *25:I I *D gf180mcu_fd_sc_mcu7t5v0__antenna
*I *435:Z O *D gf180mcu_fd_sc_mcu7t5v0__dlyb_1
*CAP
1 *36:I 0
2 *433:I1 0.000285504
3 *26:I 0
4 *432:i1_r 2.15662e-05
5 *432:i1_l 0.000802448
6 *25:I 5.84375e-05
7 *435:Z 0.00182663
8 *14:54 0.0003411
9 *14:45 0.000486092
10 *14:36 0.000780418
11 *14:10 0.00235916
12 *432:i1_l *17:16 9.37863e-05
13 *433:I1 *39:I 0.000386174
14 *433:I1 *433:S1 5.97909e-06
15 *433:I1 *17:40 2.65439e-05
16 *433:I1 *20:8 0
17 *14:10 *430:I 2.36064e-05
18 *14:10 *15:10 0
19 *14:36 *17:14 0.000174546
20 *14:36 *17:16 0.0013688
21 *14:45 *17:10 2.52351e-05
22 *14:45 *17:14 0.00213292
23 *14:45 *17:40 0.000320343
24 *14:54 *17:10 2.5232e-05
25 *14:54 *17:40 6.5189e-05
26 *23:I *432:i1_l 0.000349006
27 *432:s0b *432:i1_l 0.00146689
28 *432:s0b *14:10 0.00266939
29 *433:I0 *433:I1 0
30 *13:14 *433:I1 0.000791158
31 *13:14 *14:54 9.22618e-05
*RES
1 *435:Z *14:10 24.93 
2 *14:10 *25:I 9.27 
3 *14:10 *432:i1_l 15.1787 
4 *432:i1_l *14:36 12.9793 
5 *14:36 *432:i1_r 9.09964 
6 *14:36 *14:45 6.21 
7 *14:45 *26:I 9 
8 *14:45 *14:54 5.31 
9 *14:54 *433:I1 17.01 
10 *14:54 *36:I 4.5 
*END

*D_NET *15 0.0136577
*CONN
*I *433:I2 I *D gf180mcu_fd_sc_mcu7t5v0__mux4_1
*I *37:I I *D gf180mcu_fd_sc_mcu7t5v0__antenna
*I *28:I I *D gf180mcu_fd_sc_mcu7t5v0__antenna
*I *432:i2_r I *D gf180mcu_mux
*I *432:i2_l I *D gf180mcu_mux
*I *27:I I *D gf180mcu_fd_sc_mcu7t5v0__antenna
*I *436:Z O *D gf180mcu_fd_sc_mcu7t5v0__dlyb_1
*CAP
1 *433:I2 0
2 *37:I 0.000218235
3 *28:I 0.000208438
4 *432:i2_r 9.10967e-05
5 *432:i2_l 0.000835224
6 *27:I 0
7 *436:Z 0.00264372
8 *15:49 0.00063641
9 *15:46 0.000450891
10 *15:39 0
11 *15:32 0.000583666
12 *15:10 0.00322752
13 *28:I *20:8 0
14 *37:I *30:I 1.31343e-05
15 *432:i2_l *16:18 0.000200015
16 *15:10 *430:I 0
17 *15:10 *16:8 0.000550931
18 *15:10 *16:18 0.000118032
19 *15:10 *17:16 0
20 *15:32 *432:s1 0.000577192
21 *15:32 *16:18 6.85167e-05
22 *15:32 *16:21 0.000355867
23 *15:46 *432:s1 0.00213036
24 *15:49 *433:I3 0
25 *23:I *432:i2_l 0
26 *432:i0_l *15:32 0.000281049
27 *432:i0_l *15:46 5.90755e-05
28 *13:18 *15:46 0.000408299
29 *14:10 *15:10 0
*RES
1 *436:Z *15:10 29.43 
2 *15:10 *27:I 9 
3 *15:10 *432:i2_l 13.8287 
4 *432:i2_l *15:32 13.1464 
5 *15:32 *432:i2_r 9.74739 
6 *432:i2_r *15:39 0.125455 
7 *15:32 *15:46 9.99 
8 *15:46 *15:49 1.08 
9 *15:49 *28:I 5.85 
10 *15:49 *37:I 14.7365 
11 *15:46 *433:I2 4.5 
*END

*D_NET *16 0.0118924
*CONN
*I *432:i3_l I *D gf180mcu_mux
*I *432:i3_r I *D gf180mcu_mux
*I *433:I3 I *D gf180mcu_fd_sc_mcu7t5v0__mux4_1
*I *30:I I *D gf180mcu_fd_sc_mcu7t5v0__antenna
*I *38:I I *D gf180mcu_fd_sc_mcu7t5v0__antenna
*I *29:I I *D gf180mcu_fd_sc_mcu7t5v0__antenna
*I *437:Z O *D gf180mcu_fd_sc_mcu7t5v0__dlyb_1
*CAP
1 *432:i3_l 5.93731e-05
2 *432:i3_r 0.000121133
3 *433:I3 0.000126067
4 *30:I 2.96984e-05
5 *38:I 4.91904e-05
6 *29:I 0
7 *437:Z 0.00203469
8 *16:36 0.000293137
9 *16:25 0.000862558
10 *16:21 0.00102758
11 *16:18 0.000896071
12 *16:8 0.00264094
13 *30:I *20:8 3.9806e-05
14 *433:I3 *433:S0 1.0743e-05
15 *433:I3 *20:8 0.000140069
16 *16:8 *17:16 0.000385025
17 *16:18 *17:16 0.000292932
18 *16:21 *432:s1 0.000215585
19 *16:25 *432:s1 0.00075636
20 *16:36 *432:s1 0.000157507
21 *23:I *16:18 0.000200015
22 *37:I *30:I 1.31343e-05
23 *432:i0_l *16:18 0.000247435
24 *432:i2_l *16:18 0.000200015
25 *12:9 *16:18 0
26 *15:10 *16:8 0.000550931
27 *15:10 *16:18 0.000118032
28 *15:32 *16:18 6.85167e-05
29 *15:32 *16:21 0.000355867
30 *15:49 *433:I3 0
*RES
1 *437:Z *16:8 24.84 
2 *16:8 *29:I 9 
3 *16:8 *16:18 11.16 
4 *16:18 *16:21 7.11 
5 *16:21 *16:25 6.84 
6 *16:25 *38:I 9.27 
7 *16:25 *16:36 5.85 
8 *16:36 *30:I 4.77 
9 *16:36 *433:I3 5.49 
10 *16:21 *432:i3_r 9.96652 
11 *16:18 *432:i3_l 4.95978 
*END

*D_NET *17 0.0170644
*CONN
*I *31:I I *D gf180mcu_fd_sc_mcu7t5v0__antenna
*I *39:I I *D gf180mcu_fd_sc_mcu7t5v0__antenna
*I *433:S0 I *D gf180mcu_fd_sc_mcu7t5v0__mux4_1
*I *432:s0 I *D gf180mcu_mux
*I *21:I I *D gf180mcu_fd_sc_mcu7t5v0__antenna
*I *430:I I *D gf180mcu_fd_sc_mcu7t5v0__clkinv_1
*I *438:Z O *D gf180mcu_fd_sc_mcu7t5v0__dlyc_1
*CAP
1 *31:I 0
2 *39:I 0.000354885
3 *433:S0 6.00878e-05
4 *432:s0 0.000102571
5 *21:I 0
6 *430:I 6.23776e-05
7 *438:Z 0.0016613
8 *17:40 0.000582708
9 *17:16 0.000795667
10 *17:14 0.0010041
11 *17:13 0.000574567
12 *17:10 0.0018999
13 *39:I *432:s1 0.000137876
14 *39:I *18:16 0.000368146
15 *433:S0 *20:8 1.19582e-05
16 *23:I *17:16 0.00072199
17 *432:i0_r *432:s0 8.33025e-07
18 *432:i1_l *17:16 9.37863e-05
19 *432:s0b *430:I 0.000154209
20 *432:s0b *17:16 0.0013968
21 *432:i0_l *17:14 0.000130477
22 *432:i0_l *17:16 0.000394145
23 *433:I1 *39:I 0.000386174
24 *433:I1 *17:40 2.65439e-05
25 *433:I3 *433:S0 1.0743e-05
26 *12:9 *432:s0 0
27 *13:8 *39:I 9.16425e-05
28 *13:10 *39:I 0.000130477
29 *13:14 *39:I 0.000212715
30 *13:14 *17:10 0
31 *13:14 *17:40 0.000312634
32 *13:18 *17:14 0.000548579
33 *13:18 *17:40 2.27084e-05
34 *14:10 *430:I 2.36064e-05
35 *14:36 *17:14 0.000174546
36 *14:36 *17:16 0.0013688
37 *14:45 *17:10 2.52351e-05
38 *14:45 *17:14 0.00213292
39 *14:45 *17:40 0.000320343
40 *14:54 *17:10 2.5232e-05
41 *14:54 *17:40 6.5189e-05
42 *15:10 *430:I 0
43 *15:10 *17:16 0
44 *16:8 *17:16 0.000385025
45 *16:18 *17:16 0.000292932
*RES
1 *438:Z *17:10 24.66 
2 *17:10 *17:13 5.85 
3 *17:13 *17:14 5.85 
4 *17:14 *17:16 14.49 
5 *17:16 *430:I 9.99 
6 *17:16 *21:I 9 
7 *17:14 *432:s0 9.62357 
8 *17:13 *17:40 6.3 
9 *17:40 *433:S0 4.95 
10 *17:40 *39:I 19.53 
11 *17:10 *31:I 4.5 
*END

*D_NET *18 0.0136422
*CONN
*I *431:I I *D gf180mcu_fd_sc_mcu7t5v0__clkinv_1
*I *22:I I *D gf180mcu_fd_sc_mcu7t5v0__antenna
*I *40:I I *D gf180mcu_fd_sc_mcu7t5v0__antenna
*I *433:S1 I *D gf180mcu_fd_sc_mcu7t5v0__mux4_1
*I *32:I I *D gf180mcu_fd_sc_mcu7t5v0__antenna
*I *432:s1 I *D gf180mcu_mux
*I *439:Z O *D gf180mcu_fd_sc_mcu7t5v0__dlyb_1
*CAP
1 *431:I 0
2 *22:I 0.000109873
3 *40:I 4.64406e-05
4 *433:S1 5.34753e-05
5 *32:I 0.000395172
6 *432:s1 0.000965633
7 *439:Z 0.000250504
8 *18:16 0.00120028
9 *18:13 0.00217962
10 *18:9 0.00166671
11 *18:7 0.000250504
12 *433:S1 *20:8 3.10936e-05
13 *39:I *432:s1 0.000137876
14 *39:I *18:16 0.000368146
15 *433:I1 *433:S1 5.97909e-06
16 *12:9 *32:I 0.00151005
17 *12:9 *432:s1 0.000106561
18 *12:9 *18:13 0.000527325
19 *13:8 *18:16 0
20 *13:14 *432:s1 0
21 *15:32 *432:s1 0.000577192
22 *15:46 *432:s1 0.00213036
23 *16:21 *432:s1 0.000215585
24 *16:25 *432:s1 0.00075636
25 *16:36 *432:s1 0.000157507
*RES
1 *439:Z *18:7 6.12 
2 *18:7 *18:9 4.5 
3 *18:9 *18:13 16.2 
4 *18:13 *18:16 9.81 
5 *18:16 *432:s1 19.6924 
6 *432:s1 *32:I 13.8424 
7 *18:16 *433:S1 9.45 
8 *18:13 *40:I 4.77 
9 *18:9 *22:I 9.81 
10 *18:7 *431:I 4.5 
*END

*D_NET *19 0.00782375
*CONN
*I *432:z I *D gf180mcu_mux
*I *440:I I *D gf180mcu_fd_sc_mcu7t5v0__clkbuf_3
*I *47:I I *D gf180mcu_fd_sc_mcu7t5v0__antenna
*I *34:I I *D gf180mcu_fd_sc_mcu7t5v0__antenna
*CAP
1 *432:z 0.000713146
2 *440:I 0.000312513
3 *47:I 0
4 *34:I 4.38453e-05
5 *19:12 0.00302765
6 *19:5 0.00347213
7 *33:I *432:z 0.00024586
8 *432:s1b *432:z 8.60916e-06
*RES
1 *34:I *19:5 4.77 
2 *19:5 *19:12 24.03 
3 *19:12 *47:I 9 
4 *19:12 *440:I 10.8 
5 *19:5 *432:z 10.0507 
*END

*D_NET *20 0.00620085
*CONN
*I *48:I I *D gf180mcu_fd_sc_mcu7t5v0__antenna
*I *441:I I *D gf180mcu_fd_sc_mcu7t5v0__clkbuf_3
*I *433:Z O *D gf180mcu_fd_sc_mcu7t5v0__mux4_1
*CAP
1 *48:I 0
2 *441:I 0.000211347
3 *433:Z 0.00238486
4 *20:8 0.00259621
5 gf_out *441:I 7.96988e-06
6 *28:I *20:8 0
7 *30:I *20:8 3.9806e-05
8 *433:I1 *20:8 0
9 *433:I3 *20:8 0.000140069
10 *433:S0 *20:8 1.19582e-05
11 *433:S1 *20:8 3.10936e-05
12 *12:9 *20:8 0.000777544
*RES
1 *433:Z *20:8 28.26 
2 *20:8 *441:I 10.62 
3 *20:8 *48:I 9 
*END
