*SPEF "ieee 1481-1999"
*DESIGN "bfg_mux_test_small"
*DATE "11:11:11 Fri 11 11, 1111"
*VENDOR "OpenRCX"
*PROGRAM "Parallel Extraction"
*VERSION "1.0"
*DESIGN_FLOW "NAME_SCOPE LOCAL" "PIN_CAP NONE"
*DIVIDER /
*DELIMITER :
*BUS_DELIMITER []
*T_UNIT 1 NS
*C_UNIT 1 PF
*R_UNIT 1 OHM
*L_UNIT 1 HENRY

*NAME_MAP
*1 bfg_out
*2 gf_out
*3 i0
*4 i1
*5 i2
*6 i3
*7 s0
*8 s1
*11 _0_
*12 _1_
*13 net1
*14 net2
*15 net3
*16 net4
*17 net5
*18 net6
*19 net7
*20 net8
*21 ANTENNA__2__I
*22 ANTENNA__3__I
*23 ANTENNA_bfg_mux_i0_l
*24 ANTENNA_bfg_mux_i0_r
*25 ANTENNA_bfg_mux_i1_l
*26 ANTENNA_bfg_mux_i1_r
*27 ANTENNA_bfg_mux_i2_l
*28 ANTENNA_bfg_mux_i2_r
*29 ANTENNA_bfg_mux_i3_l
*30 ANTENNA_bfg_mux_i3_r
*31 ANTENNA_bfg_mux_s0
*32 ANTENNA_bfg_mux_s1
*33 ANTENNA_bfg_mux_s1b
*34 ANTENNA_bfg_mux_z
*35 ANTENNA_gf_mux_I0
*36 ANTENNA_gf_mux_I1
*37 ANTENNA_gf_mux_I2
*38 ANTENNA_gf_mux_I3
*39 ANTENNA_gf_mux_S0
*40 ANTENNA_gf_mux_S1
*41 ANTENNA_input1_I
*42 ANTENNA_input2_I
*43 ANTENNA_input3_I
*44 ANTENNA_input4_I
*45 ANTENNA_input5_I
*46 ANTENNA_input6_I
*47 ANTENNA_output7_I
*48 FILLER_0_104
*49 FILLER_0_107
*50 FILLER_0_139
*51 FILLER_0_142
*52 FILLER_0_174
*53 FILLER_0_177
*54 FILLER_0_19
*55 FILLER_0_193
*56 FILLER_0_2
*57 FILLER_0_201
*58 FILLER_0_205
*59 FILLER_0_209
*60 FILLER_0_212
*61 FILLER_0_229
*62 FILLER_0_237
*63 FILLER_0_37
*64 FILLER_0_53
*65 FILLER_0_55
*66 FILLER_0_58
*67 FILLER_0_66
*68 FILLER_0_72
*69 FILLER_0_88
*70 FILLER_10_100
*71 FILLER_10_104
*72 FILLER_10_107
*73 FILLER_10_111
*74 FILLER_10_115
*75 FILLER_10_119
*76 FILLER_10_123
*77 FILLER_10_126
*78 FILLER_10_130
*79 FILLER_10_138
*80 FILLER_10_142
*81 FILLER_10_174
*82 FILLER_10_177
*83 FILLER_10_2
*84 FILLER_10_209
*85 FILLER_10_212
*86 FILLER_10_228
*87 FILLER_10_236
*88 FILLER_10_240
*89 FILLER_10_34
*90 FILLER_10_37
*91 FILLER_10_69
*92 FILLER_10_72
*93 FILLER_10_88
*94 FILLER_10_96
*95 FILLER_11_137
*96 FILLER_11_141
*97 FILLER_11_144
*98 FILLER_11_2
*99 FILLER_11_208
*100 FILLER_11_212
*101 FILLER_11_215
*102 FILLER_11_231
*103 FILLER_11_239
*104 FILLER_11_5
*105 FILLER_11_69
*106 FILLER_11_73
*107 FILLER_12_108
*108 FILLER_12_172
*109 FILLER_12_176
*110 FILLER_12_179
*111 FILLER_12_19
*112 FILLER_12_2
*113 FILLER_12_211
*114 FILLER_12_227
*115 FILLER_12_235
*116 FILLER_12_239
*117 FILLER_12_37
*118 FILLER_12_45
*119 FILLER_12_49
*120 FILLER_12_54
*121 FILLER_12_58
*122 FILLER_12_90
*123 FILLER_13_105
*124 FILLER_13_121
*125 FILLER_13_129
*126 FILLER_13_133
*127 FILLER_13_138
*128 FILLER_13_144
*129 FILLER_13_147
*130 FILLER_13_2
*131 FILLER_13_211
*132 FILLER_13_215
*133 FILLER_13_231
*134 FILLER_13_239
*135 FILLER_13_66
*136 FILLER_13_70
*137 FILLER_13_73
*138 FILLER_14_101
*139 FILLER_14_105
*140 FILLER_14_108
*141 FILLER_14_172
*142 FILLER_14_176
*143 FILLER_14_179
*144 FILLER_14_2
*145 FILLER_14_211
*146 FILLER_14_227
*147 FILLER_14_235
*148 FILLER_14_239
*149 FILLER_14_34
*150 FILLER_14_37
*151 FILLER_15_137
*152 FILLER_15_141
*153 FILLER_15_144
*154 FILLER_15_2
*155 FILLER_15_208
*156 FILLER_15_212
*157 FILLER_15_215
*158 FILLER_15_231
*159 FILLER_15_239
*160 FILLER_15_66
*161 FILLER_15_70
*162 FILLER_15_73
*163 FILLER_16_104
*164 FILLER_16_107
*165 FILLER_16_123
*166 FILLER_16_131
*167 FILLER_16_135
*168 FILLER_16_139
*169 FILLER_16_142
*170 FILLER_16_144
*171 FILLER_16_170
*172 FILLER_16_174
*173 FILLER_16_177
*174 FILLER_16_18
*175 FILLER_16_193
*176 FILLER_16_2
*177 FILLER_16_201
*178 FILLER_16_205
*179 FILLER_16_209
*180 FILLER_16_212
*181 FILLER_16_227
*182 FILLER_16_235
*183 FILLER_16_239
*184 FILLER_16_26
*185 FILLER_16_30
*186 FILLER_16_34
*187 FILLER_16_37
*188 FILLER_16_54
*189 FILLER_16_72
*190 FILLER_1_13
*191 FILLER_1_137
*192 FILLER_1_141
*193 FILLER_1_144
*194 FILLER_1_15
*195 FILLER_1_18
*196 FILLER_1_2
*197 FILLER_1_208
*198 FILLER_1_212
*199 FILLER_1_215
*200 FILLER_1_22
*201 FILLER_1_231
*202 FILLER_1_239
*203 FILLER_1_5
*204 FILLER_1_56
*205 FILLER_1_60
*206 FILLER_1_64
*207 FILLER_1_68
*208 FILLER_1_70
*209 FILLER_1_73
*210 FILLER_2_104
*211 FILLER_2_107
*212 FILLER_2_139
*213 FILLER_2_142
*214 FILLER_2_174
*215 FILLER_2_177
*216 FILLER_2_2
*217 FILLER_2_209
*218 FILLER_2_212
*219 FILLER_2_228
*220 FILLER_2_236
*221 FILLER_2_240
*222 FILLER_2_34
*223 FILLER_2_37
*224 FILLER_2_69
*225 FILLER_2_72
*226 FILLER_3_149
*227 FILLER_3_2
*228 FILLER_3_213
*229 FILLER_3_217
*230 FILLER_3_220
*231 FILLER_3_236
*232 FILLER_3_240
*233 FILLER_3_66
*234 FILLER_3_70
*235 FILLER_3_73
*236 FILLER_3_81
*237 FILLER_3_83
*238 FILLER_4_149
*239 FILLER_4_181
*240 FILLER_4_184
*241 FILLER_4_2
*242 FILLER_4_216
*243 FILLER_4_232
*244 FILLER_4_240
*245 FILLER_4_34
*246 FILLER_4_37
*247 FILLER_4_69
*248 FILLER_4_77
*249 FILLER_4_81
*250 FILLER_4_83
*251 FILLER_5_149
*252 FILLER_5_2
*253 FILLER_5_213
*254 FILLER_5_217
*255 FILLER_5_220
*256 FILLER_5_236
*257 FILLER_5_240
*258 FILLER_5_66
*259 FILLER_5_70
*260 FILLER_5_73
*261 FILLER_5_81
*262 FILLER_5_83
*263 FILLER_6_149
*264 FILLER_6_152
*265 FILLER_6_168
*266 FILLER_6_176
*267 FILLER_6_180
*268 FILLER_6_184
*269 FILLER_6_2
*270 FILLER_6_200
*271 FILLER_6_208
*272 FILLER_6_225
*273 FILLER_6_229
*274 FILLER_6_237
*275 FILLER_6_34
*276 FILLER_6_37
*277 FILLER_6_69
*278 FILLER_6_77
*279 FILLER_6_83
*280 FILLER_7_149
*281 FILLER_7_152
*282 FILLER_7_156
*283 FILLER_7_188
*284 FILLER_7_2
*285 FILLER_7_204
*286 FILLER_7_212
*287 FILLER_7_216
*288 FILLER_7_220
*289 FILLER_7_236
*290 FILLER_7_240
*291 FILLER_7_66
*292 FILLER_7_70
*293 FILLER_7_73
*294 FILLER_7_79
*295 FILLER_7_83
*296 FILLER_8_149
*297 FILLER_8_181
*298 FILLER_8_184
*299 FILLER_8_2
*300 FILLER_8_216
*301 FILLER_8_232
*302 FILLER_8_240
*303 FILLER_8_34
*304 FILLER_8_37
*305 FILLER_8_69
*306 FILLER_8_77
*307 FILLER_8_81
*308 FILLER_8_83
*309 FILLER_9_149
*310 FILLER_9_2
*311 FILLER_9_213
*312 FILLER_9_217
*313 FILLER_9_220
*314 FILLER_9_236
*315 FILLER_9_240
*316 FILLER_9_66
*317 FILLER_9_70
*318 FILLER_9_73
*319 FILLER_9_81
*320 FILLER_9_83
*321 PHY_0
*322 PHY_1
*323 PHY_10
*324 PHY_11
*325 PHY_12
*326 PHY_13
*327 PHY_14
*328 PHY_15
*329 PHY_16
*330 PHY_17
*331 PHY_18
*332 PHY_19
*333 PHY_2
*334 PHY_20
*335 PHY_21
*336 PHY_22
*337 PHY_23
*338 PHY_24
*339 PHY_25
*340 PHY_26
*341 PHY_27
*342 PHY_28
*343 PHY_29
*344 PHY_3
*345 PHY_30
*346 PHY_31
*347 PHY_32
*348 PHY_33
*349 PHY_34
*350 PHY_35
*351 PHY_36
*352 PHY_37
*353 PHY_38
*354 PHY_39
*355 PHY_4
*356 PHY_40
*357 PHY_41
*358 PHY_42
*359 PHY_43
*360 PHY_44
*361 PHY_45
*362 PHY_46
*363 PHY_47
*364 PHY_5
*365 PHY_6
*366 PHY_7
*367 PHY_8
*368 PHY_9
*369 TAP_100
*370 TAP_101
*371 TAP_102
*372 TAP_103
*373 TAP_48
*374 TAP_49
*375 TAP_50
*376 TAP_51
*377 TAP_52
*378 TAP_53
*379 TAP_54
*380 TAP_55
*381 TAP_56
*382 TAP_57
*383 TAP_58
*384 TAP_59
*385 TAP_60
*386 TAP_61
*387 TAP_62
*388 TAP_63
*389 TAP_64
*390 TAP_65
*391 TAP_66
*392 TAP_67
*393 TAP_68
*394 TAP_69
*395 TAP_70
*396 TAP_71
*397 TAP_72
*398 TAP_73
*399 TAP_74
*400 TAP_75
*401 TAP_76
*402 TAP_77
*403 TAP_78
*404 TAP_79
*405 TAP_80
*406 TAP_81
*407 TAP_82
*408 TAP_83
*409 TAP_84
*410 TAP_85
*411 TAP_86
*412 TAP_87
*413 TAP_88
*414 TAP_89
*415 TAP_90
*416 TAP_91
*417 TAP_92
*418 TAP_93
*419 TAP_94
*420 TAP_95
*421 TAP_96
*422 TAP_97
*423 TAP_98
*424 TAP_99
*425 _2_
*426 _3_
*427 bfg_mux
*428 gf_mux
*429 input1
*430 input2
*431 input3
*432 input4
*433 input5
*434 input6
*435 output7
*436 output8

*PORTS
bfg_out O
gf_out O
i0 I
i1 I
i2 I
i3 I
s0 I
s1 I

*D_NET *1 0.00271299
*CONN
*P bfg_out O
*I *435:Z O *D gf180mcu_fd_sc_mcu7t5v0__clkbuf_3
*CAP
1 bfg_out 0.00135649
2 *435:Z 0.00135649
*RES
1 *435:Z bfg_out 23.805 
*END

*D_NET *2 0.00133885
*CONN
*P gf_out O
*I *436:Z O *D gf180mcu_fd_sc_mcu7t5v0__clkbuf_3
*CAP
1 gf_out 0.000669425
2 *436:Z 0.000669425
*RES
1 *436:Z gf_out 9.495 
*END

*D_NET *3 0.00179578
*CONN
*P i0 I
*I *429:I I *D gf180mcu_fd_sc_mcu7t5v0__dlyb_1
*I *41:I I *D gf180mcu_fd_sc_mcu7t5v0__antenna
*CAP
1 i0 0.000703613
2 *429:I 0.000194276
3 *41:I 0
4 *3:8 0.000897889
*RES
1 i0 *3:8 9.315 
2 *3:8 *41:I 4.5 
3 *3:8 *429:I 14.94 
*END

*D_NET *4 0.000925556
*CONN
*P i1 I
*I *430:I I *D gf180mcu_fd_sc_mcu7t5v0__dlyb_1
*I *42:I I *D gf180mcu_fd_sc_mcu7t5v0__antenna
*CAP
1 i1 0.000212288
2 *430:I 0.00025049
3 *42:I 0
4 *4:7 0.000462778
*RES
1 i1 *4:7 6.165 
2 *4:7 *42:I 4.5 
3 *4:7 *430:I 6.12 
*END

*D_NET *5 0.00253191
*CONN
*P i2 I
*I *43:I I *D gf180mcu_fd_sc_mcu7t5v0__antenna
*I *431:I I *D gf180mcu_fd_sc_mcu7t5v0__dlyb_1
*CAP
1 i2 0.00102743
2 *43:I 0.000238522
3 *431:I 0
4 *5:11 0.00126596
*RES
1 i2 *5:11 16.605 
2 *5:11 *431:I 4.5 
3 *5:11 *43:I 6.12 
*END

*D_NET *6 0.00200928
*CONN
*P i3 I
*I *44:I I *D gf180mcu_fd_sc_mcu7t5v0__antenna
*I *432:I I *D gf180mcu_fd_sc_mcu7t5v0__dlyb_1
*CAP
1 i3 0.000739113
2 *44:I 0
3 *432:I 0.000265526
4 *6:9 0.00100464
*RES
1 i3 *6:9 5.625 
2 *6:9 *432:I 15.48 
3 *6:9 *44:I 4.5 
*END

*D_NET *7 0.00287999
*CONN
*P s0 I
*I *433:I I *D gf180mcu_fd_sc_mcu7t5v0__dlyc_1
*I *45:I I *D gf180mcu_fd_sc_mcu7t5v0__antenna
*CAP
1 s0 0.000692884
2 *433:I 0.000547333
3 *45:I 0.000128091
4 *7:7 0.00136831
5 *45:I *19:14 4.02071e-05
6 *433:I *19:14 0.000103165
*RES
1 s0 *7:7 9.585 
2 *7:7 *45:I 10.17 
3 *7:7 *433:I 13.14 
*END

*D_NET *8 0.00209133
*CONN
*P s1 I
*I *434:I I *D gf180mcu_fd_sc_mcu7t5v0__dlyb_1
*I *46:I I *D gf180mcu_fd_sc_mcu7t5v0__antenna
*CAP
1 s1 0.000600972
2 *434:I 0.000337099
3 *46:I 5.74538e-05
4 *8:5 0.000995525
5 *434:I *18:9 0.000100282
*RES
1 s1 *8:5 4.365 
2 *8:5 *46:I 4.95 
3 *8:5 *434:I 15.93 
*END

*D_NET *11 0.00565791
*CONN
*I *427:s0b I *D gf180mcu_mux
*I *425:ZN O *D gf180mcu_fd_sc_mcu7t5v0__clkinv_1
*CAP
1 *427:s0b 0.00108069
2 *425:ZN 0.00108069
3 *427:s0b *427:s0 0
4 *427:s0b *427:z 0.00155751
5 *427:s0b *427:i1_l 5.00154e-05
6 *427:s0b *427:s1b 0.000371215
7 *427:s0b *12:9 0.000132308
8 *427:s0b *17:15 0.000168679
9 *427:s0b *18:37 1.91597e-05
10 *427:s0b *19:14 0.00119765
*RES
1 *425:ZN *427:s0b 30.5922 
*END

*D_NET *12 0.00830136
*CONN
*I *33:I I *D gf180mcu_fd_sc_mcu7t5v0__antenna
*I *427:s1b I *D gf180mcu_mux
*I *426:ZN O *D gf180mcu_fd_sc_mcu7t5v0__clkinv_1
*CAP
1 *33:I 0
2 *427:s1b 0.000635195
3 *426:ZN 0.00104967
4 *12:9 0.00168487
5 *427:s1b *25:I 0
6 *427:s1b *427:s0 0
7 *427:s1b *427:i1_l 0.000347079
8 *12:9 *25:I 0
9 *12:9 *426:I 0.000328044
10 *12:9 *14:29 0
11 *12:9 *14:41 0
12 *12:9 *18:37 0.00375298
13 *427:s0b *427:s1b 0.000371215
14 *427:s0b *12:9 0.000132308
*RES
1 *426:ZN *12:9 25.92 
2 *12:9 *427:s1b 10.5143 
3 *12:9 *33:I 4.5 
*END

*D_NET *13 0.0167349
*CONN
*I *24:I I *D gf180mcu_fd_sc_mcu7t5v0__antenna
*I *427:i0_r I *D gf180mcu_mux
*I *427:i0_l I *D gf180mcu_mux
*I *23:I I *D gf180mcu_fd_sc_mcu7t5v0__antenna
*I *428:I0 I *D gf180mcu_fd_sc_mcu7t5v0__mux4_1
*I *35:I I *D gf180mcu_fd_sc_mcu7t5v0__antenna
*I *429:Z O *D gf180mcu_fd_sc_mcu7t5v0__dlyb_1
*CAP
1 *24:I 0
2 *427:i0_r 0
3 *427:i0_l 2.74795e-05
4 *23:I 0
5 *428:I0 0.000204942
6 *35:I 0.000244514
7 *429:Z 0.00158596
8 *13:31 0.00208646
9 *13:25 0.00208671
10 *13:20 0.00082368
11 *13:18 0.000814279
12 *13:11 0.00205374
13 *35:I *428:I2 4.93203e-06
14 *35:I *428:S0 2.33247e-06
15 *428:I0 *428:I1 0.000492708
16 *428:I0 *428:I3 4.24667e-05
17 *428:I0 *428:S1 0.00116431
18 *428:I0 *15:10 0.00192243
19 *13:11 *28:I 3.64225e-05
20 *13:18 *28:I 0.000819684
21 *13:18 *15:35 1.05871e-06
22 *13:20 *15:35 0.000653321
23 *13:25 *15:26 0.000730991
24 *13:25 *15:35 1.18575e-05
25 *13:25 *16:9 0.00029445
26 *13:31 *38:I 0.000223418
27 *13:31 *428:I2 9.86406e-06
28 *13:31 *428:S0 0
29 *13:31 *15:23 0.000378211
30 *13:31 *15:26 1.86737e-05
*RES
1 *429:Z *13:11 25.29 
2 *13:11 *13:18 10.0254 
3 *13:18 *13:20 3.88607 
4 *13:20 *13:25 9.48857 
5 *13:25 *13:31 20.88 
6 *13:31 *35:I 5.85 
7 *13:31 *428:I0 19.26 
8 *13:25 *23:I 4.5 
9 *13:20 *427:i0_l 9.12696 
10 *13:18 *427:i0_r 9 
11 *13:11 *24:I 4.5 
*END

*D_NET *14 0.0156595
*CONN
*I *26:I I *D gf180mcu_fd_sc_mcu7t5v0__antenna
*I *427:i1_l I *D gf180mcu_mux
*I *427:i1_r I *D gf180mcu_mux
*I *25:I I *D gf180mcu_fd_sc_mcu7t5v0__antenna
*I *36:I I *D gf180mcu_fd_sc_mcu7t5v0__antenna
*I *428:I1 I *D gf180mcu_fd_sc_mcu7t5v0__mux4_1
*I *430:Z O *D gf180mcu_fd_sc_mcu7t5v0__dlyb_1
*CAP
1 *26:I 0
2 *427:i1_l 0.00060494
3 *427:i1_r 8.82725e-05
4 *25:I 0.000147088
5 *36:I 0
6 *428:I1 0.000292296
7 *430:Z 0.000391981
8 *14:43 0.00100556
9 *14:41 0.00106158
10 *14:29 0.00292106
11 *14:13 0.00214457
12 *14:10 0.00426899
13 *427:i1_l *427:s0 4.13284e-06
14 *427:i1_r *17:23 0.000384245
15 *427:i1_r *17:41 0.00013699
16 *428:I1 *15:5 4.49984e-05
17 *428:I1 *15:10 0.000229336
18 *14:29 *426:I 0
19 *14:41 *17:15 4.08027e-05
20 *14:41 *17:23 7.56244e-06
21 *14:41 *18:37 0
22 *14:43 *17:23 0.000995325
23 *14:43 *18:28 0
24 *14:43 *18:37 0
25 *427:s0b *427:i1_l 5.00154e-05
26 *427:s1b *25:I 0
27 *427:s1b *427:i1_l 0.000347079
28 *428:I0 *428:I1 0.000492708
29 *12:9 *25:I 0
30 *12:9 *14:29 0
31 *12:9 *14:41 0
*RES
1 *430:Z *14:10 11.61 
2 *14:10 *14:13 16.47 
3 *14:13 *428:I1 16.56 
4 *14:13 *36:I 4.5 
5 *14:10 *14:29 14.85 
6 *14:29 *25:I 9.81 
7 *14:29 *14:41 9.36 
8 *14:41 *14:43 3.51 
9 *14:43 *427:i1_r 5.74714 
10 *14:43 *427:i1_l 9.59674 
11 *14:41 *26:I 4.5 
*END

*D_NET *15 0.0163682
*CONN
*I *37:I I *D gf180mcu_fd_sc_mcu7t5v0__antenna
*I *27:I I *D gf180mcu_fd_sc_mcu7t5v0__antenna
*I *28:I I *D gf180mcu_fd_sc_mcu7t5v0__antenna
*I *427:i2_r I *D gf180mcu_mux
*I *427:i2_l I *D gf180mcu_mux
*I *428:I2 I *D gf180mcu_fd_sc_mcu7t5v0__mux4_1
*I *431:Z O *D gf180mcu_fd_sc_mcu7t5v0__dlyb_1
*CAP
1 *37:I 0
2 *27:I 0.000162134
3 *28:I 0.000377691
4 *427:i2_r 2.72538e-05
5 *427:i2_l 3.12564e-05
6 *428:I2 5.03985e-05
7 *431:Z 0.000221303
8 *15:35 0.000499341
9 *15:26 0.000297787
10 *15:23 0.00172429
11 *15:10 0.00193543
12 *15:5 0.00071631
13 *27:I *16:9 0.000104002
14 *28:I *30:I 0.00175194
15 *427:i2_r *17:41 1.10344e-05
16 *428:I2 *428:I3 2.33247e-06
17 *15:10 *428:I3 0.000136694
18 *15:23 *428:I3 6.9295e-06
19 *15:23 *16:9 1.27695e-05
20 *15:23 *16:11 2.14859e-05
21 *15:23 *16:16 0.000180428
22 *15:26 *16:41 0.00150558
23 *15:26 *16:53 0.000226616
24 *15:35 *30:I 0.000353065
25 *15:35 *16:53 0.00115038
26 *35:I *428:I2 4.93203e-06
27 *428:I0 *15:10 0.00192243
28 *428:I1 *15:5 4.49984e-05
29 *428:I1 *15:10 0.000229336
30 *13:11 *28:I 3.64225e-05
31 *13:18 *28:I 0.000819684
32 *13:18 *15:35 1.05871e-06
33 *13:20 *15:35 0.000653321
34 *13:25 *15:26 0.000730991
35 *13:25 *15:35 1.18575e-05
36 *13:31 *428:I2 9.86406e-06
37 *13:31 *15:23 0.000378211
38 *13:31 *15:26 1.86737e-05
*RES
1 *431:Z *15:5 6.03 
2 *15:5 *15:10 15.75 
3 *15:10 *428:I2 4.77 
4 *15:10 *15:23 19.53 
5 *15:23 *15:26 9.39857 
6 *15:26 *427:i2_l 9.15107 
7 *15:26 *15:35 3.89411 
8 *15:35 *427:i2_r 9.1575 
9 *15:35 *28:I 15.3273 
10 *15:23 *27:I 5.67 
11 *15:5 *37:I 4.5 
*END

*D_NET *16 0.0175904
*CONN
*I *30:I I *D gf180mcu_fd_sc_mcu7t5v0__antenna
*I *427:i3_r I *D gf180mcu_mux
*I *427:i3_l I *D gf180mcu_mux
*I *29:I I *D gf180mcu_fd_sc_mcu7t5v0__antenna
*I *38:I I *D gf180mcu_fd_sc_mcu7t5v0__antenna
*I *428:I3 I *D gf180mcu_fd_sc_mcu7t5v0__mux4_1
*I *432:Z O *D gf180mcu_fd_sc_mcu7t5v0__dlyb_1
*CAP
1 *30:I 0.000371265
2 *427:i3_r 6.66439e-05
3 *427:i3_l 0.000129455
4 *29:I 0
5 *38:I 7.24548e-05
6 *428:I3 0.000438069
7 *432:Z 0.00268996
8 *16:53 0.000737176
9 *16:41 0.000728508
10 *16:16 0.00167032
11 *16:11 0.00118635
12 *16:9 0.0030163
13 *38:I *428:S0 0
14 *427:i3_r *427:s0 0
15 *427:i3_r *17:41 1.00753e-05
16 *427:i3_r *18:28 4.45217e-06
17 *428:I3 *428:S0 4.93203e-06
18 *428:I3 *428:S1 1.18863e-05
19 *428:I3 *436:I 1.47961e-05
20 *16:16 *428:S1 2.13596e-05
21 *16:16 *17:41 0.00035753
22 *16:16 *18:12 4.63161e-05
23 *27:I *16:9 0.000104002
24 *28:I *30:I 0.00175194
25 *428:I0 *428:I3 4.24667e-05
26 *428:I2 *428:I3 2.33247e-06
27 *13:25 *16:9 0.00029445
28 *13:31 *38:I 0.000223418
29 *15:10 *428:I3 0.000136694
30 *15:23 *428:I3 6.9295e-06
31 *15:23 *16:9 1.27695e-05
32 *15:23 *16:11 2.14859e-05
33 *15:23 *16:16 0.000180428
34 *15:26 *16:41 0.00150558
35 *15:26 *16:53 0.000226616
36 *15:35 *30:I 0.000353065
37 *15:35 *16:53 0.00115038
*RES
1 *432:Z *16:9 31.86 
2 *16:9 *16:11 0.27 
3 *16:11 *16:16 13.86 
4 *16:16 *428:I3 12.15 
5 *16:16 *38:I 9.63 
6 *16:11 *29:I 4.5 
7 *16:9 *16:41 8.37 
8 *16:41 *427:i3_l 9.83257 
9 *16:41 *16:53 3.51 
10 *16:53 *427:i3_r 9.39431 
11 *16:53 *30:I 14.31 
*END

*D_NET *17 0.0137014
*CONN
*I *21:I I *D gf180mcu_fd_sc_mcu7t5v0__antenna
*I *425:I I *D gf180mcu_fd_sc_mcu7t5v0__clkinv_1
*I *31:I I *D gf180mcu_fd_sc_mcu7t5v0__antenna
*I *39:I I *D gf180mcu_fd_sc_mcu7t5v0__antenna
*I *428:S0 I *D gf180mcu_fd_sc_mcu7t5v0__mux4_1
*I *427:s0 I *D gf180mcu_mux
*I *433:Z O *D gf180mcu_fd_sc_mcu7t5v0__dlyc_1
*CAP
1 *21:I 0
2 *425:I 0
3 *31:I 0
4 *39:I 0
5 *428:S0 0.000368084
6 *427:s0 0.000146191
7 *433:Z 0.000513204
8 *17:41 0.00200568
9 *17:23 0.00235772
10 *17:15 0.00130389
11 *17:10 0.000994077
12 *17:5 0.000777322
13 *428:S0 *428:S1 0.000776918
14 *428:S0 *436:I 8.3172e-05
15 *428:S0 *18:12 0.000280999
16 *17:23 *18:28 9.3012e-05
17 *17:41 *18:9 0
18 *17:41 *18:12 0.00169994
19 *17:41 *18:26 0.00015207
20 *17:41 *18:28 2.54874e-05
21 *35:I *428:S0 2.33247e-06
22 *38:I *428:S0 0
23 *427:i2_r *17:41 1.10344e-05
24 *427:i1_l *427:s0 4.13284e-06
25 *427:s0b *427:s0 0
26 *427:s0b *17:15 0.000168679
27 *427:i1_r *17:23 0.000384245
28 *427:i1_r *17:41 0.00013699
29 *427:s1b *427:s0 0
30 *427:i3_r *427:s0 0
31 *427:i3_r *17:41 1.00753e-05
32 *428:I3 *428:S0 4.93203e-06
33 *13:31 *428:S0 0
34 *14:41 *17:15 4.08027e-05
35 *14:41 *17:23 7.56244e-06
36 *14:43 *17:23 0.000995325
37 *16:16 *17:41 0.00035753
*RES
1 *433:Z *17:5 7.65 
2 *17:5 *17:10 6.48 
3 *17:10 *17:15 9.9 
4 *17:15 *17:23 14.6857 
5 *17:23 *427:s0 5.53696 
6 *17:23 *17:41 26.28 
7 *17:41 *428:S0 17.19 
8 *17:41 *39:I 4.5 
9 *17:15 *31:I 4.5 
10 *17:10 *425:I 9 
11 *17:5 *21:I 4.5 
*END

*D_NET *18 0.0216933
*CONN
*I *427:s1 I *D gf180mcu_mux
*I *22:I I *D gf180mcu_fd_sc_mcu7t5v0__antenna
*I *426:I I *D gf180mcu_fd_sc_mcu7t5v0__clkinv_1
*I *32:I I *D gf180mcu_fd_sc_mcu7t5v0__antenna
*I *40:I I *D gf180mcu_fd_sc_mcu7t5v0__antenna
*I *428:S1 I *D gf180mcu_fd_sc_mcu7t5v0__mux4_1
*I *434:Z O *D gf180mcu_fd_sc_mcu7t5v0__dlyb_1
*CAP
1 *427:s1 0.000124037
2 *22:I 0
3 *426:I 7.0108e-05
4 *32:I 0
5 *40:I 0
6 *428:S1 0.000245992
7 *434:Z 0.00252847
8 *18:37 0.00126497
9 *18:28 0.00177583
10 *18:26 0.00151405
11 *18:12 0.000931165
12 *18:9 0.00402269
13 *428:S1 *436:I 0
14 *18:12 *436:I 0
15 *18:28 *427:z 0.000526962
16 *18:28 *19:14 1.0743e-05
17 *18:37 *19:14 0.000201035
18 *427:s0b *18:37 1.91597e-05
19 *427:i3_r *18:28 4.45217e-06
20 *428:I0 *428:S1 0.00116431
21 *428:I3 *428:S1 1.18863e-05
22 *428:S0 *428:S1 0.000776918
23 *428:S0 *18:12 0.000280999
24 *434:I *18:9 0.000100282
25 *12:9 *426:I 0.000328044
26 *12:9 *18:37 0.00375298
27 *14:29 *426:I 0
28 *14:41 *18:37 0
29 *14:43 *18:28 0
30 *14:43 *18:37 0
31 *16:16 *428:S1 2.13596e-05
32 *16:16 *18:12 4.63161e-05
33 *17:23 *18:28 9.3012e-05
34 *17:41 *18:9 0
35 *17:41 *18:12 0.00169994
36 *17:41 *18:26 0.00015207
37 *17:41 *18:28 2.54874e-05
*RES
1 *434:Z *18:9 32.22 
2 *18:9 *18:12 14.49 
3 *18:12 *428:S1 12.87 
4 *18:12 *40:I 9 
5 *18:9 *18:26 6.03 
6 *18:26 *18:28 5.67 
7 *18:28 *32:I 4.5 
8 *18:28 *18:37 17.82 
9 *18:37 *426:I 9.99 
10 *18:37 *22:I 9 
11 *18:26 *427:s1 5.29826 
*END

*D_NET *19 0.010896
*CONN
*I *435:I I *D gf180mcu_fd_sc_mcu7t5v0__clkbuf_3
*I *47:I I *D gf180mcu_fd_sc_mcu7t5v0__antenna
*I *427:z I *D gf180mcu_mux
*I *34:I I *D gf180mcu_fd_sc_mcu7t5v0__antenna
*CAP
1 *435:I 0.000396991
2 *47:I 9.73883e-05
3 *427:z 0.000233998
4 *34:I 0
5 *19:14 0.00339535
6 *19:4 0.00313496
7 *45:I *19:14 4.02071e-05
8 *427:s0b *427:z 0.00155751
9 *427:s0b *19:14 0.00119765
10 *433:I *19:14 0.000103165
11 *18:28 *427:z 0.000526962
12 *18:28 *19:14 1.0743e-05
13 *18:37 *19:14 0.000201035
*RES
1 *34:I *19:4 4.5 
2 *19:4 *427:z 9.22018 
3 *19:4 *19:14 27.9 
4 *19:14 *47:I 9.63 
5 *19:14 *435:I 11.34 
*END

*D_NET *20 0.00280037
*CONN
*I *436:I I *D gf180mcu_fd_sc_mcu7t5v0__clkbuf_3
*I *428:Z O *D gf180mcu_fd_sc_mcu7t5v0__mux4_1
*CAP
1 *436:I 0.0013512
2 *428:Z 0.0013512
3 *428:I3 *436:I 1.47961e-05
4 *428:S0 *436:I 8.3172e-05
5 *428:S1 *436:I 0
6 *18:12 *436:I 0
*RES
1 *428:Z *436:I 27.9 
*END
